# File generated by Flopy version 3.9.5 on 12/21/2025 at 20:57:21.
BEGIN options
END options

BEGIN timing
  TDIS6  os_experiment.tdis
END timing

BEGIN models
  gwf6  os_experiment.nam  os_experiment
END models

BEGIN exchanges
END exchanges

BEGIN solutiongroup  1
  ims6  os_experiment.ims  os_experiment
END solutiongroup  1

