# File generated by Flopy version 3.9.5 on 12/21/2025 at 20:57:21.
BEGIN options
  SAVE_FLOWS
  NEWTON
END options

BEGIN packages
  DIS6  os_experiment.dis  dis
  NPF6  os_experiment.npf  npf
  STO6  os_experiment.sto  sto
  IC6  os_experiment.ic  ic
  RCH6  os_experiment.rcha  rcha_0
  OC6  os_experiment.oc  oc
END packages

