# File generated by Flopy version 3.9.5 on 12/21/2025 at 20:57:21.
BEGIN options
  READASARRAYS
END options

BEGIN period  1
  recharge
    INTERNAL  FACTOR  1.0
         0.01000000       0.01000000       0.01000000       0.01000000       0.01000000       0.01000000       0.02000000       0.02000000       0.02000000       0.02000000       0.02000000       0.02000000
         0.01000000       0.01000000       0.01000000       0.01000000       0.01000000       0.01000000       0.02000000       0.02000000       0.02000000       0.02000000       0.02000000       0.02000000
         0.01000000       0.01000000       0.01000000       0.01000000       0.01000000       0.01000000       0.02000000       0.02000000       0.02000000       0.02000000       0.02000000       0.02000000
         0.01000000       0.01000000       0.01000000       0.01000000       0.01000000       0.01000000       0.02000000       0.02000000       0.02000000       0.02000000       0.02000000       0.02000000
         0.01000000       0.01000000       0.01000000       0.01000000       0.01000000       0.01000000       0.02000000       0.02000000       0.02000000       0.02000000       0.02000000       0.02000000
         0.01000000       0.01000000       0.01000000       0.01000000       0.01000000       0.01000000       0.02000000       0.02000000       0.02000000       0.02000000       0.02000000       0.02000000
         0.03000000       0.03000000       0.03000000       0.03000000       0.03000000       0.03000000       0.04000000       0.04000000       0.04000000       0.04000000       0.04000000       0.04000000
         0.03000000       0.03000000       0.03000000       0.03000000       0.03000000       0.03000000       0.04000000       0.04000000       0.04000000       0.04000000       0.04000000       0.04000000
         0.03000000       0.03000000       0.03000000       0.03000000       0.03000000       0.03000000       0.04000000       0.04000000       0.04000000       0.04000000       0.04000000       0.04000000
         0.03000000       0.03000000       0.03000000       0.03000000       0.03000000       0.03000000       0.04000000       0.04000000       0.04000000       0.04000000       0.04000000       0.04000000
         0.03000000       0.03000000       0.03000000       0.03000000       0.03000000       0.03000000       0.04000000       0.04000000       0.04000000       0.04000000       0.04000000       0.04000000
         0.03000000       0.03000000       0.03000000       0.03000000       0.03000000       0.03000000       0.04000000       0.04000000       0.04000000       0.04000000       0.04000000       0.04000000
END period  1

