# File generated by Flopy version 3.9.5 on 12/21/2025 at 20:57:21.
BEGIN options
  TIME_UNITS  days
END options

BEGIN dimensions
  NPER  1
END dimensions

BEGIN perioddata
    5000.00000000  100       1.00000000
END perioddata

