# File generated by Flopy version 3.9.5 on 12/21/2025 at 20:57:21.
BEGIN options
END options

BEGIN griddata
  strt
    CONSTANT      50.00000000
END griddata

