# File generated by Flopy version 3.9.5 on 12/21/2025 at 20:57:21.
BEGIN options
  BUDGET  FILEOUT  os_experiment.cbc
  HEAD  FILEOUT  os_experiment.hds
END options

BEGIN period  1
  SAVE  HEAD  LAST
  SAVE  BUDGET  LAST
END period  1

