# File generated by Flopy version 3.9.5 on 12/08/2025 at 16:06:52.
BEGIN options
END options

BEGIN dimensions
  MAXBOUND  192
END dimensions

BEGIN period  1
  1 1 1 1.10000000E+02
  1 2 1 1.10000000E+02
  1 3 1 1.10000000E+02
  1 4 1 1.10000000E+02
  1 5 1 1.10000000E+02
  1 6 1 1.10000000E+02
  1 7 1 1.10000000E+02
  1 8 1 1.10000000E+02
  1 9 1 1.10000000E+02
  1 10 1 1.10000000E+02
  1 11 1 1.10000000E+02
  1 12 1 1.10000000E+02
  2 1 1 1.10000000E+02
  2 2 1 1.10000000E+02
  2 3 1 1.10000000E+02
  2 4 1 1.10000000E+02
  2 5 1 1.10000000E+02
  2 6 1 1.10000000E+02
  2 7 1 1.10000000E+02
  2 8 1 1.10000000E+02
  2 9 1 1.10000000E+02
  2 10 1 1.10000000E+02
  2 11 1 1.10000000E+02
  2 12 1 1.10000000E+02
  3 1 1 1.10000000E+02
  3 2 1 1.10000000E+02
  3 3 1 1.10000000E+02
  3 4 1 1.10000000E+02
  3 5 1 1.10000000E+02
  3 6 1 1.10000000E+02
  3 7 1 1.10000000E+02
  3 8 1 1.10000000E+02
  3 9 1 1.10000000E+02
  3 10 1 1.10000000E+02
  3 11 1 1.10000000E+02
  3 12 1 1.10000000E+02
  4 1 1 1.10000000E+02
  4 2 1 1.10000000E+02
  4 3 1 1.10000000E+02
  4 4 1 1.10000000E+02
  4 5 1 1.10000000E+02
  4 6 1 1.10000000E+02
  4 7 1 1.10000000E+02
  4 8 1 1.10000000E+02
  4 9 1 1.10000000E+02
  4 10 1 1.10000000E+02
  4 11 1 1.10000000E+02
  4 12 1 1.10000000E+02
  5 1 1 1.10000000E+02
  5 2 1 1.10000000E+02
  5 3 1 1.10000000E+02
  5 4 1 1.10000000E+02
  5 5 1 1.10000000E+02
  5 6 1 1.10000000E+02
  5 7 1 1.10000000E+02
  5 8 1 1.10000000E+02
  5 9 1 1.10000000E+02
  5 10 1 1.10000000E+02
  5 11 1 1.10000000E+02
  5 12 1 1.10000000E+02
  6 1 1 1.10000000E+02
  6 2 1 1.10000000E+02
  6 3 1 1.10000000E+02
  6 4 1 1.10000000E+02
  6 5 1 1.10000000E+02
  6 6 1 1.10000000E+02
  6 7 1 1.10000000E+02
  6 8 1 1.10000000E+02
  6 9 1 1.10000000E+02
  6 10 1 1.10000000E+02
  6 11 1 1.10000000E+02
  6 12 1 1.10000000E+02
  7 1 1 1.10000000E+02
  7 2 1 1.10000000E+02
  7 3 1 1.10000000E+02
  7 4 1 1.10000000E+02
  7 5 1 1.10000000E+02
  7 6 1 1.10000000E+02
  7 7 1 1.10000000E+02
  7 8 1 1.10000000E+02
  7 9 1 1.10000000E+02
  7 10 1 1.10000000E+02
  7 11 1 1.10000000E+02
  7 12 1 1.10000000E+02
  8 1 1 1.10000000E+02
  8 2 1 1.10000000E+02
  8 3 1 1.10000000E+02
  8 4 1 1.10000000E+02
  8 5 1 1.10000000E+02
  8 6 1 1.10000000E+02
  8 7 1 1.10000000E+02
  8 8 1 1.10000000E+02
  8 9 1 1.10000000E+02
  8 10 1 1.10000000E+02
  8 11 1 1.10000000E+02
  8 12 1 1.10000000E+02
  9 1 1 1.10000000E+02
  9 2 1 1.10000000E+02
  9 3 1 1.10000000E+02
  9 4 1 1.10000000E+02
  9 5 1 1.10000000E+02
  9 6 1 1.10000000E+02
  9 7 1 1.10000000E+02
  9 8 1 1.10000000E+02
  9 9 1 1.10000000E+02
  9 10 1 1.10000000E+02
  9 11 1 1.10000000E+02
  9 12 1 1.10000000E+02
  10 1 1 1.10000000E+02
  10 2 1 1.10000000E+02
  10 3 1 1.10000000E+02
  10 4 1 1.10000000E+02
  10 5 1 1.10000000E+02
  10 6 1 1.10000000E+02
  10 7 1 1.10000000E+02
  10 8 1 1.10000000E+02
  10 9 1 1.10000000E+02
  10 10 1 1.10000000E+02
  10 11 1 1.10000000E+02
  10 12 1 1.10000000E+02
  11 1 1 1.10000000E+02
  11 2 1 1.10000000E+02
  11 3 1 1.10000000E+02
  11 4 1 1.10000000E+02
  11 5 1 1.10000000E+02
  11 6 1 1.10000000E+02
  11 7 1 1.10000000E+02
  11 8 1 1.10000000E+02
  11 9 1 1.10000000E+02
  11 10 1 1.10000000E+02
  11 11 1 1.10000000E+02
  11 12 1 1.10000000E+02
  12 1 1 1.10000000E+02
  12 2 1 1.10000000E+02
  12 3 1 1.10000000E+02
  12 4 1 1.10000000E+02
  12 5 1 1.10000000E+02
  12 6 1 1.10000000E+02
  12 7 1 1.10000000E+02
  12 8 1 1.10000000E+02
  12 9 1 1.10000000E+02
  12 10 1 1.10000000E+02
  12 11 1 1.10000000E+02
  12 12 1 1.10000000E+02
  13 1 1 1.10000000E+02
  13 2 1 1.10000000E+02
  13 3 1 1.10000000E+02
  13 4 1 1.10000000E+02
  13 5 1 1.10000000E+02
  13 6 1 1.10000000E+02
  13 7 1 1.10000000E+02
  13 8 1 1.10000000E+02
  13 9 1 1.10000000E+02
  13 10 1 1.10000000E+02
  13 11 1 1.10000000E+02
  13 12 1 1.10000000E+02
  14 1 1 1.10000000E+02
  14 2 1 1.10000000E+02
  14 3 1 1.10000000E+02
  14 4 1 1.10000000E+02
  14 5 1 1.10000000E+02
  14 6 1 1.10000000E+02
  14 7 1 1.10000000E+02
  14 8 1 1.10000000E+02
  14 9 1 1.10000000E+02
  14 10 1 1.10000000E+02
  14 11 1 1.10000000E+02
  14 12 1 1.10000000E+02
  15 1 1 1.10000000E+02
  15 2 1 1.10000000E+02
  15 3 1 1.10000000E+02
  15 4 1 1.10000000E+02
  15 5 1 1.10000000E+02
  15 6 1 1.10000000E+02
  15 7 1 1.10000000E+02
  15 8 1 1.10000000E+02
  15 9 1 1.10000000E+02
  15 10 1 1.10000000E+02
  15 11 1 1.10000000E+02
  15 12 1 1.10000000E+02
  16 1 1 1.10000000E+02
  16 2 1 1.10000000E+02
  16 3 1 1.10000000E+02
  16 4 1 1.10000000E+02
  16 5 1 1.10000000E+02
  16 6 1 1.10000000E+02
  16 7 1 1.10000000E+02
  16 8 1 1.10000000E+02
  16 9 1 1.10000000E+02
  16 10 1 1.10000000E+02
  16 11 1 1.10000000E+02
  16 12 1 1.10000000E+02
END period  1

